<node>
  <type_nodetype>153</type_nodetype>
  <vars>
    <value>1</value>
    <key>n&#243;d&#243;ir&#237;</key>
  </vars>
  <vars>
    <value>1</value>
    <key>Musicians</key>
  </vars>
  <vars>
    <value>1</value>
    <key>RPGers</key>
  </vars>
  <vars>
    <value>1</value>
    <key>e2cowtippers</key>
  </vars>
  <vars>
    <value>1</value>
    <key>e2pandas</key>
  </vars>
  <node_id>1258672</node_id>
  <title>allow usergroup leader add</title>
</node>
