<node>
  <node_id>1258672</node_id>
  <type_nodetype>153</type_nodetype>
  <setting_id>1258672</setting_id>
  <vars>n&#243;d&#243;ir&#237;=1&amp;Musicians=1&amp;RPGers=1&amp;e2cowtippers=1&amp;e2pandas=1</vars>
  <title>allow usergroup leader add</title>
</node>
