<node>
  <core>0</core>
  <reputation>0</reputation>
  <lockedby_user>0</lockedby_user>
  <createtime>2002-02-22 19:21:02</createtime>
  <locktime>0000-00-00 00:00:00</locktime>
  <totalvotes>0</totalvotes>
  <hits>0</hits>
  <node_id>1258672</node_id>
  <type_nodetype>153</type_nodetype>
  <setting_id>1258672</setting_id>
  <author_user>9740</author_user>
  <vars>n&#243;d&#243;ir&#237;=1&amp;Musicians=1&amp;RPGers=1&amp;e2cowtippers=1&amp;e2pandas=1</vars>
  <package>0</package>
  <title>allow usergroup leader add</title>
</node>
