<node>
  <doctext>DJ [nate] presents:
&lt;p&gt;
Herb is Pumpin -- [Slick Rick]/[Keith Murray]&lt;br&gt;
Gather Round -- [Diamond D]&lt;br&gt;
Proto Culture -- [Del Tha Funke Homosapien|Deltron]&lt;br&gt;
Rockefella -- [Redman]&lt;br&gt;
Neva Had a Gun -- [Krs One]&lt;br&gt;
New York State of Mind -- [Nas]&lt;br&gt;
Fresh -- [Jermaine Dupri]/[Slick Rick]&lt;br&gt;
Know That -- [Black Star]&lt;br&gt;
All Black -- [Big L]&lt;br&gt;
I'm the Mutherfuckin' Man --  [Gang Starr|Dj Premier/The Guru]/[Jeru the Damaja]&lt;br&gt;
Only out to Fuck -- Goldie/[Too $hort|$horty the Pimp]&lt;br&gt;
What They Do -- [The Roots]/Humbert&lt;br&gt;
Neighborhood Sniper -- [Cool Man Eddie|Eazy E]&lt;br&gt;
Where Ya At -- [DITC]&lt;br&gt;
Trouble in the Water -- [Dj Honda]/[De La Soul]&lt;br&gt;
&lt;p&gt;
[%
return unless isGod($USER) or $$USER{title} eq 'flamingweasel';

&quot;&lt;i&gt;Note that you shouldn't see this unless you are &lt;b&gt;trustworthy&lt;/b&gt;:
&lt;br&gt;&lt;a href=http://mixedeuphoria.everything2.com/nate/neat_flows/neat_flows.mp3&gt;NEAT FLOWS MP3&lt;/a&gt;&quot;;

%]</doctext>
  <createtime>2001-07-03 00:20:02</createtime>
  <totalvotes>0</totalvotes>
  <node_id>1096837</node_id>
  <edittime>0000-00-00 00:00:00</edittime>
  <type_nodetype>14</type_nodetype>
  <author_user>220</author_user>
  <title>Neat Flows</title>
</node>
